test/fixtures/powermodels/case14/sol_dc_pf.json
{
  "termination_status": "OPTIMAL",
  "objective": 0.0,
  "solution": {
    "baseMVA": 100,
    "gen": {
      "4": {
        "qg": null,
        "pg": -0.0
      },
      "1": {
        "qg": null,
        "pg": 2.1899999999999946
      },
      "5": {
        "qg": null,
        "pg": -0.0
      },
      "2": {
        "qg": null,
        "pg": 0.4
      },
      "3": {
        "qg": null,
        "pg": -0.0
      }
    },
    "multiinfrastructure": false,
    "multinetwork": false,
    "bus": {
      "4": {
        "va": -0.2006982888182507,
        "vm": 1.0
      },
      "1": {
        "va": -0.0,
        "vm": 1.0
      },
      "12": {
        "va": -0.30041362625594875,
        "vm": 1.0
      },
      "2": {
        "va": -0.09583946423098347,
        "vm": 1.0
      },
      "6": {
        "va": -0.27750052499242267,
        "vm": 1.0
      },
      "11": {
        "va": -0.2929526389306914,
        "vm": 1.0
      },
      "13": {
        "va": -0.30564067624275804,
        "vm": 1.0
      },
      "5": {
        "va": -0.17171116104664794,
        "vm": 1.0
      },
      "14": {
        "va": -0.32659290543237124,
        "vm": 1.0
      },
      "7": {
        "va": -0.2614540972236201,
        "vm": 1.0
      },
      "8": {
        "va": -0.2614540972236201,
        "vm": 1.0
      },
      "10": {
        "va": -0.29937154974289715,
        "vm": 1.0
      },
      "9": {
        "va": -0.29341539448201087,
        "vm": 1.0
      },
      "3": {
        "va": -0.24542407879256384,
        "vm": 1.0
      }
    },
    "per_unit": true
  }
}

